OPT_V10/Two_days_MYC3_SOS/powerflow_results_t15.txt
Pandapower Network Debug Info
==================================================

BUS:
       vm_pu  va_degree      p_mw    q_mvar
0   0.995511   0.249427 -0.000323  0.000919
1   0.992675   0.401904  0.000108  0.002250
2   0.990043   0.522112  0.000685  0.002813
3   0.992677   0.389156  0.000867  0.004286
4   0.999897   0.001451  0.010173  0.010260
5   0.999885   0.001577  0.010143  0.009768
6   0.999877   0.001703  0.008461  0.011094
7   0.999938   0.001066  0.000000  0.000000
8   0.999938   0.001072  0.000000  0.000000
9   1.000000   0.000000 -0.030227 -0.046462
10  1.000000   0.000006  0.000000  0.000000
--------------------------------------------------

LINE:
   p_from_mw  q_from_mvar   p_to_mw  q_to_mvar         pl_mw       ql_mvar  i_from_ka   i_to_ka      i_ka  vm_from_pu  va_from_degree  vm_to_pu  va_to_degree  loading_percent
0   0.030217     0.042462 -0.030214  -0.042460  2.656671e-06  2.071450e-06   0.002006  0.002006  0.002006    1.000000        0.000006  0.999938      0.001066         0.872148
1   0.028779     0.031124 -0.028778  -0.031123  1.389695e-06  1.083568e-06   0.001632  0.001632  0.001632    0.999938        0.001066  0.999897      0.001451         0.709432
2   0.001425     0.010336 -0.001374  -0.010297  5.092767e-05  3.970915e-05   0.015061  0.015061  0.015061    0.999938        0.001072  0.995511      0.249427         6.548401
3  -0.018605    -0.020862  0.018605   0.020863  2.702782e-07  2.107403e-07   0.001076  0.001076  0.001076    0.999885        0.001577  0.999897      0.001451         0.467842
4  -0.008461    -0.011094  0.008461   0.011094  9.522882e-08  7.425148e-08   0.000537  0.000537  0.000537    0.999877        0.001703  0.999885      0.001577         0.233518
5  -0.000800    -0.005069  0.000816   0.005082  1.581280e-05  1.232950e-05   0.007462  0.007462  0.007462    0.992675        0.401904  0.995511      0.249427         3.244388
6  -0.000867    -0.004286  0.000880   0.004296  1.295590e-05  1.010193e-05   0.006358  0.006358  0.006358    0.992677        0.389156  0.995511      0.249427         2.764392
7  -0.000685    -0.002813  0.000692   0.002819  7.735861e-06  6.031778e-06   0.004221  0.004221  0.004221    0.990043        0.522112  0.992675      0.401904         1.835182
--------------------------------------------------

TRAFO:
    p_hv_mw  q_hv_mvar   p_lv_mw  q_lv_mvar    pl_mw  ql_mvar   i_hv_ka   i_lv_ka  vm_hv_pu  va_hv_degree  vm_lv_pu  va_lv_degree  loading_percent
0  0.001435   0.011336 -0.001425  -0.010336  0.00001    0.001  0.000440  0.015061  0.999938      0.001066  0.999938      0.001072         0.114274
1  0.030227   0.046462 -0.030217  -0.042462  0.00001    0.004  0.000457  0.002006  1.000000      0.000000  1.000000      0.000006         0.138572
--------------------------------------------------
